
#######################################################################
#
#                 Cambridge Crystallographic Data Centre
#                                CCDC 
#
#######################################################################
#
# If this CIF has been generated from an entry in the Cambridge 
# Structural Database, then it will include bibliographic, chemical, 
# crystal, experimental, refinement or atomic coordinate data resulting 
# from the CCDC's data processing and validation procedures.
#
#######################################################################

data_UFAGIS01
_symmetry_cell_setting           triclinic
_symmetry_space_group_name_H-M   'P -1'
_symmetry_Int_Tables_number      2
_space_group_name_Hall           '-P 1'
loop_
_symmetry_equiv_pos_site_id
_symmetry_equiv_pos_as_xyz
1 x,y,z
2 -x,-y,-z
_cell_length_a                   7.7832(12)
_cell_length_b                   11.8515(11)
_cell_length_c                   14.513(2)
_cell_angle_alpha                82.353(4)
_cell_angle_beta                 82.095(5)
_cell_angle_gamma                72.460(9)
_cell_volume                     1258.38
loop_
_atom_site_label
_atom_site_type_symbol
_atom_site_fract_x
_atom_site_fract_y
_atom_site_fract_z
_atom_site_U_iso_or_equiv
_atom_site_thermal_displace_type
S1 S -0.28532(14) 0.36598(9) 0.47963(7) 0.0648 Uani
S2 S -0.33244(12) 0.21846(9) 0.55311(8) 0.0597 Uani
O1 O -0.1425(5) 0.7608(3) 0.7099(3) 0.0933 Uani
O2 O -0.2430(7) 0.6621(3) 0.8270(3) 0.1113 Uani
O3 O 0.5190(4) -0.0383(3) 0.6160(3) 0.1012 Uani
O4 O 0.4123(4) -0.1761(3) 0.6849(3) 0.0831 Uani
N1 N -0.2025(5) 0.6797(3) 0.7443(3) 0.0695 Uani
N2 N -0.2166(5) 0.5481(3) 0.5290(3) 0.0676 Uani
N3 N 0.0258(4) 0.1755(2) 0.5594(2) 0.0485 Uani
N4 N 0.3948(4) -0.0788(3) 0.6427(2) 0.0561 Uani
C1 C -0.2263(5) 0.5991(3) 0.6821(3) 0.0537 Uani
C2 C -0.2820(6) 0.5018(3) 0.7196(3) 0.0610 Uani
H1 H -0.3062 0.4877 0.784 0.0730 Uiso
C3 C -0.3013(5) 0.4261(3) 0.6612(3) 0.0572 Uani
H2 H -0.3366 0.3586 0.6846 0.0780 Uiso
C4 C -0.2670(4) 0.4527(3) 0.5671(3) 0.0521 Uani
C5 C -0.1959(5) 0.6208(3) 0.5874(3) 0.0631 Uani
H3 H -0.1598 0.6876 0.5627 0.0780 Uiso
C6 C -0.1129(4) 0.1300(3) 0.5804(2) 0.0448 Uani
C7 C -0.0971(5) 0.0159(3) 0.6229(3) 0.0501 Uani
H4 H -0.1982 -0.0121 0.6366 0.0780 Uiso
C8 C 0.0692(5) -0.0546(3) 0.6443(3) 0.0482 Uani
H5 H 0.0851 -0.1316 0.6728 0.0580 Uiso
C9 C 0.2126(4) -0.0072(3) 0.6222(2) 0.0425 Uani
C10 C 0.1881(5) 0.1059(3) 0.5803(3) 0.0505 Uani
H6 H 0.2877 0.1353 0.5658 0.0610 Uiso
S3 S 0.2159(2) 0.37139(15) 0.72593(9) 0.1008 Uani
S4 S 0.17109(18) 0.22078(14) 0.79400(11) 0.0931 Uani
O5 O 0.3423(6) 0.7628(3) 0.9636(3) 0.1124 Uani
O6 O 0.2541(7) 0.6562(3) 1.0807(3) 0.1078 Uani
O7 O 1.0125(5) -0.0429(5) 0.8735(4) 0.1424 Uani
O8 O 0.8920(5) -0.1686(3) 0.9535(3) 0.0986 Uani
N5 N 0.2906(5) 0.6772(3) 0.9981(3) 0.0764 Uani
N6 N 0.2519(6) 0.5608(4) 0.7817(3) 0.0942 Uani
N7 N 0.5273(5) 0.1785(3) 0.8105(3) 0.0724 Uani
N8 N 0.8822(6) -0.0777(4) 0.9035(3) 0.0800 Uani
C11 C 0.2288(6) 0.4547(4) 0.8158(3) 0.0727 Uani
C12 C 0.2218(6) 0.4174(4) 0.9095(3) 0.0706 Uani
H7 H 0.2054 0.3436 0.9313 0.0780 Uiso
C13 C 0.2395(6) 0.4909(4) 0.9697(3) 0.0689 Uani
H8 H 0.2342 0.4685 1.0337 0.0830 Uiso
C14 C 0.2653(6) 0.5984(4) 0.9348(3) 0.0679 Uani
C15 C 0.2697(7) 0.6302(5) 0.8413(4) 0.0891 Uani
H9 H 0.286 0.7038 0.8184 0.1070 Uiso
C16 C 0.3897(6) 0.1317(4) 0.8230(3) 0.0691 Uani
C17 C 0.4031(6) 0.0156(4) 0.8614(4) 0.0767 Uani
H10 H 0.3032 -0.0136 0.8688 0.0780 Uiso
C18 C 0.5647(6) -0.0536(4) 0.8877(3) 0.0707 Uani
H11 H 0.5788 -0.1315 0.9137 0.0850 Uiso
C19 C 0.7070(5) -0.0059(3) 0.8749(3) 0.0589 Uani
C20 C 0.6845(6) 0.1087(4) 0.8371(3) 0.0688 Uani
H12 H 0.7831 0.1392 0.8298 0.0820 Uiso
loop_
_atom_site_aniso_label
_atom_site_aniso_U_11
_atom_site_aniso_U_22
_atom_site_aniso_U_33
_atom_site_aniso_U_23
_atom_site_aniso_U_13
_atom_site_aniso_U_12
S1 0.0590(6) 0.0586(6) 0.0625(6) 0.0013(5) -0.0153(5) 0.0052(5)
S2 0.0394(5) 0.0547(6) 0.0817(7) -0.0117(5) -0.0121(4) -0.0040(4)
O1 0.090(2) 0.0562(18) 0.140(3) 0.0072(19) -0.023(2) -0.0325(17)
O2 0.192(5) 0.070(2) 0.087(3) -0.0074(19) -0.024(3) -0.056(3)
O3 0.0428(16) 0.090(2) 0.167(4) 0.040(2) -0.0314(19) -0.0267(16)
O4 0.0621(18) 0.0593(18) 0.115(3) 0.0246(18) -0.0246(17) -0.0056(14)
N1 0.069(2) 0.0378(17) 0.103(3) 0.0058(18) -0.021(2) -0.0172(15)
N2 0.060(2) 0.057(2) 0.071(2) 0.0161(17) -0.0025(17) -0.0063(16)
N3 0.0421(15) 0.0390(14) 0.0646(18) 0.0010(13) -0.0090(13) -0.0129(12)
N4 0.0443(17) 0.0510(18) 0.072(2) 0.0044(15) -0.0162(14) -0.0121(14)
C1 0.0452(19) 0.0357(17) 0.075(3) 0.0040(16) -0.0102(17) -0.0060(14)
C2 0.074(3) 0.0427(19) 0.063(2) 0.0056(17) 0.0015(19) -0.0202(18)
C3 0.067(2) 0.0396(18) 0.063(2) 0.0037(16) -0.0033(18) -0.0177(17)
C4 0.0350(17) 0.0418(18) 0.068(2) 0.0060(16) -0.0067(15) 0.0017(14)
C5 0.054(2) 0.045(2) 0.084(3) 0.019(2) -0.007(2) -0.0157(17)
C6 0.0363(16) 0.0450(18) 0.0523(19) -0.0104(14) -0.0070(14) -0.0070(13)
C7 0.0410(18) 0.0476(19) 0.065(2) -0.0033(16) -0.0026(15) -0.0199(15)
C8 0.0481(19) 0.0377(17) 0.059(2) 0.0011(15) -0.0053(15) -0.0153(14)
C9 0.0374(16) 0.0399(16) 0.0516(18) -0.0039(14) -0.0096(14) -0.0112(13)
C10 0.0406(18) 0.0445(18) 0.070(2) 0.0027(16) -0.0090(16) -0.0198(15)
S3 0.0942(10) 0.1143(11) 0.0657(8) -0.0129(7) -0.0239(7) 0.0208(8)
S4 0.0649(8) 0.1047(10) 0.1078(11) -0.0382(8) -0.0275(7) -0.0014(7)
O5 0.114(3) 0.083(2) 0.153(4) 0.014(2) -0.017(3) -0.057(2)
O6 0.157(4) 0.080(2) 0.092(3) -0.001(2) -0.017(3) -0.044(3)
O7 0.064(2) 0.148(4) 0.205(5) 0.056(4) -0.031(3) -0.039(3)
O8 0.097(3) 0.074(2) 0.113(3) 0.013(2) -0.024(2) -0.0104(19)
N5 0.071(2) 0.057(2) 0.097(3) 0.005(2) -0.014(2) -0.0150(18)
N6 0.095(3) 0.092(3) 0.064(2) 0.027(2) -0.002(2) 0.003(2)
N7 0.072(2) 0.065(2) 0.076(2) -0.0057(18) -0.0121(19) -0.0121(18)
N8 0.073(3) 0.070(2) 0.091(3) 0.003(2) -0.009(2) -0.016(2)
C11 0.057(2) 0.077(3) 0.061(2) 0.003(2) -0.0061(19) 0.011(2)
C12 0.082(3) 0.061(3) 0.060(3) 0.005(2) -0.001(2) -0.015(2)
C13 0.073(3) 0.061(2) 0.063(3) 0.009(2) -0.003(2) -0.013(2)
C14 0.055(2) 0.061(2) 0.075(3) 0.011(2) -0.003(2) -0.0069(19)
C15 0.091(4) 0.072(3) 0.081(3) 0.021(3) 0.001(3) -0.005(3)
C16 0.063(3) 0.075(3) 0.068(3) -0.029(2) -0.006(2) -0.009(2)
C17 0.061(3) 0.083(3) 0.096(3) -0.029(3) -0.001(2) -0.030(2)
C18 0.072(3) 0.059(2) 0.084(3) -0.014(2) -0.002(2) -0.023(2)
C19 0.057(2) 0.059(2) 0.059(2) -0.0117(18) -0.0014(18) -0.0137(18)
C20 0.062(3) 0.061(2) 0.082(3) -0.005(2) -0.004(2) -0.018(2)

#END
